
     RDKit          3D

 16 16  0  0  0  0  0  0  0  0999 V2000
    2.8773    0.0329    0.0225 C   0  0  0  0  0  0  0  0  0  0  0  0
    1.7781   -0.6929    0.2669 C   0  0  0  0  0  0  0  0  0  0  0  0
    0.3798   -0.2592    0.0965 C   0  0  0  0  0  0  0  0  0  0  0  0
   -0.6421   -1.1700    0.4073 C   0  0  0  0  0  0  0  0  0  0  0  0
   -1.9882   -0.8192    0.2669 C   0  0  0  0  0  0  0  0  0  0  0  0
   -2.3333    0.4501   -0.1874 C   0  0  0  0  0  0  0  0  0  0  0  0
   -1.3332    1.3666   -0.5005 C   0  0  0  0  0  0  0  0  0  0  0  0
    0.0134    1.0143   -0.3596 C   0  0  0  0  0  0  0  0  0  0  0  0
    2.8510    1.0534   -0.3398 H   0  0  0  0  0  0  0  0  0  0  0  0
    3.8604   -0.3984    0.1872 H   0  0  0  0  0  0  0  0  0  0  0  0
    1.9153   -1.7103    0.6294 H   0  0  0  0  0  0  0  0  0  0  0  0
   -0.4013   -2.1689    0.7644 H   0  0  0  0  0  0  0  0  0  0  0  0
   -2.7644   -1.5390    0.5129 H   0  0  0  0  0  0  0  0  0  0  0  0
   -3.3788    0.7249   -0.2972 H   0  0  0  0  0  0  0  0  0  0  0  0
   -1.5979    2.3592   -0.8557 H   0  0  0  0  0  0  0  0  0  0  0  0
    0.7639    1.7566   -0.6138 H   0  0  0  0  0  0  0  0  0  0  0  0
  1  2  2  0
  2  3  1  0
  3  4  2  0
  4  5  1  0
  5  6  2  0
  6  7  1  0
  7  8  2  0
  8  3  1  0
  1  9  1  0
  1 10  1  0
  2 11  1  0
  4 12  1  0
  5 13  1  0
  6 14  1  0
  7 15  1  0
  8 16  1  0
M  END
$$$$
