40

N      0.000000 1   -2.113600 1    0.000000 1
N      2.031810 1    0.000000 1    0.000000 1
N      0.000000 1    2.113600 1    0.000000 1
N     -2.031810 1    0.000000 1    0.000000 1
C      1.113910 1   -2.747953 1    0.688458 1
C     -1.076676 1   -2.735713 1    0.758496 1
C      1.097810 1    2.762352 1   -0.697378 1
C     -1.123039 1    2.772837 1   -0.639546 1
C      2.856627 1   -1.004895 1    0.647505 1
C      2.843409 1    1.014385 1   -0.653410 1
C     -2.792927 1   -0.954283 1    0.786034 1
C     -2.891831 1    1.054309 1   -0.518530 1
C      0.703337 1   -4.177272 1    0.745058 1
C     -0.679264 1   -4.169511 1    0.792050 1
C      0.683252 1    4.194545 1   -0.681973 1
C     -0.700783 1    4.200007 1   -0.643778 1
C      4.248254 1   -0.587483 1    0.339888 1
C      4.241260 1    0.601343 1   -0.356075 1
C     -4.205705 1   -0.530310 1    0.611486 1
C     -4.257284 1    0.654853 1   -0.088409 1
C      2.494182 1   -2.402593 1    0.146518 1
C     -2.491053 1   -2.377312 1    0.313416 1
C     -2.464972 1    2.431036 1   -0.009150 1
C      2.479634 1    2.413801 1   -0.143464 1
H      3.211773 1    3.124447 1   -0.584021 1
Fe     0.000000 1    0.000000 1    0.000000 1
O      0.000000 1    0.000000 1    1.650000 1
S      0.000000 1    0.000000 1   -2.300000 1
H      0.973874 1   -1.010993 1   -2.388254 1
H      5.127205 1    1.126668 1   -0.687035 1
H      5.139294 1   -1.106985 1    0.666427 1
H      2.554158 1   -2.508855 1   -0.958224 1
H      1.308790 1   -5.034679 1    0.482392 1
H     -1.310569 1   -5.020152 1    0.571700 1
H     -2.640261 1   -2.519459 1   -0.779028 1
H      1.300018 1    5.035729 1   -0.394063 1
H     -5.164065 1    1.199658 1   -0.314770 1
H     -1.296037 1    5.044523 1   -0.322181 1
H     -2.438330 1    2.501961 1    1.100390 1
H     -5.062014 1   -1.027376 1    1.047222 1